LTspice 24.0.9 for Windows
Circuit: * E:\Academic files\Competiton and Project files\Lab & Course Related Projects\LIC Project 1khz Sine wave generator\Final Iteration of 1kHz sinecosine generator\LTSpice simulation for 1kHz SineCosine Generator\1kHz sinecosine gen.asc
Start Time: Wed Nov  5 12:08:32 2025
solver = Normal
Maximum thread count: 12
tnom = 27
temp = 27
method = modified trap
Direct Newton iteration failed to find .op point.  (Use ".option noopiter" to skip.)
Starting Gmin stepping
Gmin = 10
Gmin = 1.07374
Gmin = 0.115292
Gmin = 0.0123794
Gmin = 0.00132923
Gmin = 0.000142725
Gmin = 1.5325e-05
vernier = 0.5
vernier = 0.25
vernier = 0.125
vernier = 0.0625
Gmin = 1.721e-05
vernier = 0.03125
vernier = 0.015625
vernier = 0.0078125
Gmin = 1.70429e-05
vernier = 0.0104167
vernier = 0.0138889
Gmin = 1.6548e-05
vernier = 0.0185185
vernier = 0.0246913
Gmin = 1.57889e-05
vernier = 0.0329218
Gmin = 1.46657e-05
vernier = 0.0438957
vernier = 0.0585276
Gmin = 1.29607e-05
vernier = 0.0780367
vernier = 0.104049
Gmin = 1.06503e-05
vernier = 0.138732
Gmin = 7.83262e-06
vernier = 0.184976
vernier = 0.246634
Gmin = 4.70078e-06
vernier = 0.328846
vernier = 0.438461
Gmin = 2.10854e-06
vernier = 0.584614
Gmin = 6.1353e-07
vernier = 0.779486
vernier = 1
Gmin = 8.63513e-08
Gmin = 9.2719e-09
Gmin = 9.95563e-10
Gmin = 1.06898e-10
Gmin = 1.14781e-11
Gmin = 1.23245e-12
Gmin = 1.32333e-13
Gmin = 0
Gmin stepping succeeded in finding the operating point.

Ignoring empty pin current: Ix(u1:vc+)
Ignoring empty pin current: Ix(u1:vc-)
Ignoring empty pin current: Ix(u1:vout+)
Ignoring empty pin current: Ix(u1:vout-)
Ignoring empty pin current: Ix(u2:a)
Ignoring empty pin current: Ix(u2:c)
Ignoring empty pin current: Ix(u1:vc+)
Ignoring empty pin current: Ix(u1:vc-)
Ignoring empty pin current: Ix(u1:vout+)
Ignoring empty pin current: Ix(u1:vout-)
Ignoring empty pin current: Ix(u2:a)
Ignoring empty pin current: Ix(u2:c)
Total elapsed time: 4.009 seconds.

